sad/pglib_opf_case500_tamu__sad.m
%%%%%%%%%%%%%%%%%%%%%%%%%%%%%%%%%%%%%%%%%%%%%%%%%%%%%%%%%%%%%%%%%%%%%%%%%%%
%%%%                                                                  %%%%%
%%%%    IEEE PES Power Grid Library - Optimal Power Flow - v18.08     %%%%%
%%%%          (https://github.com/power-grid-lib/pglib-opf)           %%%%%
%%%%             Benchmark Group - Small Angle Difference             %%%%%
%%%%                         31 - July - 2018                         %%%%%
%%%%                                                                  %%%%%
%%%%%%%%%%%%%%%%%%%%%%%%%%%%%%%%%%%%%%%%%%%%%%%%%%%%%%%%%%%%%%%%%%%%%%%%%%%
function mpc = pglib_opf_case500_tamu__sad
mpc.version = '2';
mpc.baseMVA = 100.0;

%% bus data
%	bus_i	type	Pd	Qd	Gs	Bs	area	Vm	Va	baseKV	zone	Vmax	Vmin
mpc.bus = [
	1	 1	 0.0	 0.0	 0.0	 0.0	 1	    1.00000	    0.00000	 138.0	 2	    1.10000	    0.90000;
	2	 1	 42.8	 11.41	 0.0	 0.0	 1	    1.00000	    0.00000	 138.0	 2	    1.10000	    0.90000;
	3	 1	 0.0	 0.0	 0.0	 0.0	 1	    1.00000	    0.00000	 138.0	 2	    1.10000	    0.90000;
	4	 1	 132.69	 35.38	 0.0	 0.0	 1	    1.00000	    0.00000	 138.0	 2	    1.10000	    0.90000;
	5	 1	 0.0	 0.0	 0.0	 0.0	 1	    1.00000	    0.00000	 138.0	 1	    1.10000	    0.90000;
	6	 1	 3.21	 0.86	 0.0	 0.0	 1	    1.00000	    0.00000	 138.0	 1	    1.10000	    0.90000;
	7	 1	 0.0	 0.0	 0.0	 0.0	 1	    1.00000	    0.00000	 345.0	 2	    1.10000	    0.90000;
	8	 1	 0.0	 0.0	 0.0	 0.0	 1	    1.00000	    0.00000	 138.0	 2	    1.10000	    0.90000;
	9	 2	 0.0	 0.0	 0.0	 0.0	 1	    1.00000	    0.00000	 13.8	 2	    1.10000	    0.90000;
	10	 1	 0.0	 0.0	 0.0	 0.0	 1	    1.00000	    0.00000	 138.0	 2	    1.10000	    0.90000;
	11	 1	 2.47	 0.66	 0.0	 0.0	 1	    1.00000	    0.00000	 138.0	 2	    1.10000	    0.90000;
	12	 1	 0.0	 0.0	 0.0	 0.0	 1	    1.00000	    0.00000	 138.0	 1	    1.10000	    0.90000;
	13	 1	 37.16	 9.91	 0.0	 0.0	 1	    1.00000	    0.00000	 138.0	 1	    1.10000	    0.90000;
	14	 1	 0.0	 0.0	 0.0	 0.0	 1	    1.00000	    0.00000	 345.0	 1	    1.10000	    0.90000;
	15	 1	 0.0	 0.0	 0.0	 0.0	 1	    1.00000	    0.00000	 138.0	 1	    1.10000	    0.90000;
	16	 2	 0.0	 0.0	 0.0	 0.0	 1	    1.00000	    0.00000	 13.8	 1	    1.10000	    0.90000;
	17	 3	 0.0	 0.0	 0.0	 0.0	 1	    1.00000	    0.00000	 13.8	 1	    1.10000	    0.90000;
	18	 2	 0.0	 0.0	 0.0	 0.0	 1	    1.00000	    0.00000	 13.8	 1	    1.10000	    0.90000;
	19	 1	 0.0	 0.0	 0.0	 0.0	 1	    1.00000	    0.00000	 138.0	 2	    1.10000	    0.90000;
	20	 1	 4.54	 1.21	 0.0	 0.0	 1	    1.00000	    0.00000	 138.0	 2	    1.10000	    0.90000;
	21	 1	 0.0	 0.0	 0.0	 0.0	 1	    1.00000	    0.00000	 138.0	 2	    1.10000	    0.90000;
	22	 1	 148.7	 39.65	 0.0	 0.0	 1	    1.00000	    0.00000	 138.0	 2	    1.10000	    0.90000;
	23	 1	 0.0	 0.0	 0.0	 0.0	 1	    1.00000	    0.00000	 345.0	 1	    1.10000	    0.90000;
	24	 1	 0.0	 0.0	 0.0	 0.0	 1	    1.00000	    0.00000	 138.0	 1	    1.10000	    0.90000;
	25	 1	 2.28	 0.61	 0.0	 0.0	 1	    1.00000	    0.00000	 138.0	 1	    1.10000	    0.90000;
	26	 1	 21.66	 5.78	 0.0	 0.0	 1	    1.00000	    0.00000	 138.0	 1	    1.10000	    0.90000;
	27	 1	 0.0	 0.0	 0.0	 50.0	 1	    1.00000	    0.00000	 138.0	 1	    1.10000	    0.90000;
	28	 1	 62.93	 16.78	 0.0	 0.0	 1	    1.00000	    0.00000	 138.0	 1	    1.10000	    0.90000;
	29	 1	 0.0	 0.0	 0.0	 0.0	 1	    1.00000	    0.00000	 138.0	 2	    1.10000	    0.90000;
	30	 1	 99.97	 26.66	 0.0	 0.0	 1	    1.00000	    0.00000	 138.0	 2	    1.10000	    0.90000;
	31	 1	 0.0	 0.0	 0.0	 100.0	 1	    1.00000	    0.00000	 138.0	 2	    1.10000	    0.90000;
	32	 1	 9.76	 2.6	 0.0	 0.0	 1	    1.00000	    0.00000	 138.0	 2	    1.10000	    0.90000;
	33	 1	 0.0	 0.0	 0.0	 0.0	 1	    1.00000	    0.00000	 138.0	 2	    1.10000	    0.90000;
	34	 1	 25.0	 6.67	 0.0	 0.0	 1	    1.00000	    0.00000	 138.0	 2	    1.10000	    0.90000;
	35	 1	 0.0	 0.0	 0.0	 0.0	 1	    1.00000	    0.00000	 138.0	 2	    1.10000	    0.90000;
	36	 1	 43.35	 11.56	 0.0	 0.0	 1	    1.00000	    0.00000	 138.0	 2	    1.10000	    0.90000;
	37	 1	 0.0	 0.0	 0.0	 0.0	 1	    1.00000	    0.00000	 138.0	 1	    1.10000	    0.90000;
	38	 1	 0.13	 0.03	 0.0	 0.0	 1	    1.00000	    0.00000	 138.0	 1	    1.10000	    0.90000;
	39	 1	 0.0	 0.0	 0.0	 0.0	 1	    1.00000	    0.00000	 345.0	 1	    1.10000	    0.90000;
	40	 1	 0.0	 0.0	 0.0	 0.0	 1	    1.00000	    0.00000	 138.0	 1	    1.10000	    0.90000;
	41	 1	 57.99	 15.46	 0.0	 0.0	 1	    1.00000	    0.00000	 138.0	 1	    1.10000	    0.90000;
	42	 1	 0.0	 0.0	 0.0	 0.0	 1	    1.00000	    0.00000	 138.0	 2	    1.10000	    0.90000;
	43	 1	 4.46	 1.19	 0.0	 0.0	 1	    1.00000	    0.00000	 138.0	 2	    1.10000	    0.90000;
	44	 1	 0.0	 0.0	 0.0	 0.0	 1	    1.00000	    0.00000	 138.0	 2	    1.10000	    0.90000;
	45	 1	 2.03	 0.54	 0.0	 0.0	 1	    1.00000	    0.00000	 138.0	 2	    1.10000	    0.90000;
	46	 1	 0.0	 0.0	 0.0	 0.0	 1	    1.00000	    0.00000	 138.0	 1	    1.10000	    0.90000;
	47	 1	 43.41	 11.58	 0.0	 0.0	 1	    1.00000	    0.00000	 138.0	 1	    1.10000	    0.90000;
	48	 1	 0.0	 0.0	 0.0	 0.0	 1	    1.00000	    0.00000	 138.0	 1	    1.10000	    0.90000;
	49	 2	 0.0	 0.0	 0.0	 0.0	 1	    1.00000	    0.00000	 13.8	 1	    1.10000	    0.90000;
	50	 2	 0.0	 0.0	 0.0	 0.0	 1	    1.00000	    0.00000	 13.8	 1	    1.10000	    0.90000;
	51	 1	 0.35	 0.09	 0.0	 0.0	 1	    1.00000	    0.00000	 138.0	 1	    1.10000	    0.90000;
	52	 1	 23.39	 6.24	 0.0	 0.0	 1	    1.00000	    0.00000	 138.0	 1	    1.10000	    0.90000;
	53	 1	 0.0	 0.0	 0.0	 0.0	 1	    1.00000	    0.00000	 138.0	 2	    1.10000	    0.90000;
	54	 1	 34.81	 9.28	 0.0	 0.0	 1	    1.00000	    0.00000	 138.0	 2	    1.10000	    0.90000;
	55	 1	 0.0	 0.0	 0.0	 0.0	 1	    1.00000	    0.00000	 138.0	 1	    1.10000	    0.90000;
	56	 1	 2.25	 0.6	 0.0	 0.0	 1	    1.00000	    0.00000	 138.0	 1	    1.10000	    0.90000;
	57	 1	 0.0	 0.0	 0.0	 0.0	 1	    1.00000	    0.00000	 345.0	 1	    1.10000	    0.90000;
	58	 1	 0.0	 0.0	 0.0	 0.0	 1	    1.00000	    0.00000	 138.0	 1	    1.10000	    0.90000;
	59	 1	 140.94	 37.58	 0.0	 0.0	 1	    1.00000	    0.00000	 138.0	 1	    1.10000	    0.90000;
	60	 1	 0.0	 0.0	 0.0	 0.0	 1	    1.00000	    0.00000	 138.0	 1	    1.10000	    0.90000;
	61	 1	 0.2	 0.05	 0.0	 0.0	 1	    1.00000	    0.00000	 138.0	 1	    1.10000	    0.90000;
	62	 1	 0.0	 0.0	 0.0	 0.0	 1	    1.00000	    0.00000	 138.0	 1	    1.10000	    0.90000;
	63	 2	 0.0	 0.0	 0.0	 0.0	 1	    1.00000	    0.00000	 13.8	 1	    1.10000	    0.90000;
	64	 1	 34.78	 9.27	 0.0	 0.0	 1	    1.00000	    0.00000	 138.0	 1	    1.10000	    0.90000;
	65	 1	 0.0	 0.0	 0.0	 0.0	 1	    1.00000	    0.00000	 345.0	 1	    1.10000	    0.90000;
	66	 1	 0.0	 0.0	 0.0	 0.0	 1	    1.00000	    0.00000	 138.0	 1	    1.10000	    0.90000;
	67	 1	 4.57	 1.22	 0.0	 0.0	 1	    1.00000	    0.00000	 138.0	 1	    1.10000	    0.90000;
	68	 1	 0.0	 0.0	 0.0	 0.0	 1	    1.00000	    0.00000	 138.0	 1	    1.10000	    0.90000;
	69	 1	 16.96	 4.52	 0.0	 0.0	 1	    1.00000	    0.00000	 138.0	 1	    1.10000	    0.90000;
	70	 1	 0.0	 0.0	 0.0	 0.0	 1	    1.00000	    0.00000	 138.0	 1	    1.10000	    0.90000;
	71	 2	 0.0	 0.0	 0.0	 0.0	 1	    1.00000	    0.00000	 13.8	 1	    1.10000	    0.90000;
	72	 2	 0.0	 0.0	 0.0	 0.0	 1	    1.00000	    0.00000	 13.8	 1	    1.10000	    0.90000;
	73	 2	 0.0	 0.0	 0.0	 0.0	 1	    1.00000	    0.00000	 13.8	 1	    1.10000	    0.90000;
	74	 1	 0.0	 0.0	 0.0	 0.0	 1	    1.00000	    0.00000	 138.0	 2	    1.10000	    0.90000;
	75	 1	 5.3	 1.41	 0.0	 0.0	 1	    1.00000	    0.00000	 138.0	 2	    1.10000	    0.90000;
	76	 1	 0.0	 0.0	 0.0	 0.0	 1	    1.00000	    0.00000	 138.0	 1	    1.10000	    0.90000;
	77	 1	 6.95	 1.85	 0.0	 0.0	 1	    1.00000	    0.00000	 138.0	 1	    1.10000	    0.90000;
	78	 1	 0.0	 0.0	 0.0	 0.0	 1	    1.00000	    0.00000	 138.0	 1	    1.10000	    0.90000;
	79	 1	 0.38	 0.1	 0.0	 0.0	 1	    1.00000	    0.00000	 138.0	 1	    1.10000	    0.90000;
	80	 1	 0.0	 0.0	 0.0	 0.0	 1	    1.00000	    0.00000	 345.0	 2	    1.10000	    0.90000;
	81	 1	 0.0	 0.0	 0.0	 0.0	 1	    1.00000	    0.00000	 138.0	 2	    1.10000	    0.90000;
	82	 2	 0.0	 0.0	 0.0	 0.0	 1	    1.00000	    0.00000	 13.8	 2	    1.10000	    0.90000;
	83	 1	 0.0	 0.0	 0.0	 0.0	 1	    1.00000	    0.00000	 138.0	 2	    1.10000	    0.90000;
	84	 1	 61.41	 16.38	 0.0	 0.0	 1	    1.00000	    0.00000	 138.0	 2	    1.10000	    0.90000;
	85	 1	 0.0	 0.0	 0.0	 0.0	 1	    1.00000	    0.00000	 138.0	 2	    1.10000	    0.90000;
	86	 1	 17.59	 4.69	 0.0	 0.0	 1	    1.00000	    0.00000	 138.0	 2	    1.10000	    0.90000;
	87	 1	 0.0	 0.0	 0.0	 0.0	 1	    1.00000	    0.00000	 138.0	 1	    1.10000	    0.90000;
	88	 1	 5.25	 1.4	 0.0	 0.0	 1	    1.00000	    0.00000	 138.0	 1	    1.10000	    0.90000;
	89	 1	 0.0	 0.0	 0.0	 0.0	 1	    1.00000	    0.00000	 138.0	 2	    1.10000	    0.90000;
	90	 1	 5.9	 1.57	 0.0	 0.0	 1	    1.00000	    0.00000	 138.0	 2	    1.10000	    0.90000;
	91	 1	 0.0	 0.0	 0.0	 0.0	 1	    1.00000	    0.00000	 138.0	 1	    1.10000	    0.90000;
	92	 1	 65.03	 17.34	 0.0	 0.0	 1	    1.00000	    0.00000	 138.0	 1	    1.10000	    0.90000;
	93	 1	 0.0	 0.0	 0.0	 0.0	 1	    1.00000	    0.00000	 138.0	 2	    1.10000	    0.90000;
	94	 1	 5.21	 1.39	 0.0	 0.0	 1	    1.00000	    0.00000	 138.0	 2	    1.10000	    0.90000;
	95	 1	 0.0	 0.0	 0.0	 0.0	 1	    1.00000	    0.00000	 138.0	 1	    1.10000	    0.90000;
	96	 1	 34.0	 9.07	 0.0	 0.0	 1	    1.00000	    0.00000	 138.0	 1	    1.10000	    0.90000;
	97	 1	 0.0	 0.0	 0.0	 0.0	 1	    1.00000	    0.00000	 138.0	 1	    1.10000	    0.90000;
	98	 1	 37.09	 9.89	 0.0	 0.0	 1	    1.00000	    0.00000	 138.0	 1	    1.10000	    0.90000;
	99	 1	 0.0	 0.0	 0.0	 0.0	 1	    1.00000	    0.00000	 138.0	 1	    1.10000	    0.90000;
	100	 1	 13.52	 3.61	 0.0	 0.0	 1	    1.00000	    0.00000	 138.0	 1	    1.10000	    0.90000;
	101	 1	 0.89	 0.24	 0.0	 0.0	 1	    1.00000	    0.00000	 138.0	 1	    1.10000	    0.90000;
	102	 1	 0.0	 0.0	 0.0	 0.0	 1	    1.00000	    0.00000	 138.0	 1	    1.10000	    0.90000;
	103	 1	 38.8	 10.35	 0.0	 0.0	 1	    1.00000	    0.00000	 138.0	 1	    1.10000	    0.90000;
	104	 1	 0.0	 0.0	 0.0	 0.0	 1	    1.00000	    0.00000	 138.0	 2	    1.10000	    0.90000;
	105	 1	 80.33	 21.42	 0.0	 0.0	 1	    1.00000	    0.00000	 138.0	 2	    1.10000	    0.90000;
	106	 1	 0.0	 0.0	 0.0	 0.0	 1	    1.00000	    0.00000	 138.0	 2	    1.10000	    0.90000;
	107	 1	 16.01	 4.27	 0.0	 0.0	 1	    1.00000	    0.00000	 138.0	 2	    1.10000	    0.90000;
	108	 1	 0.0	 0.0	 0.0	 0.0	 1	    1.00000	    0.00000	 138.0	 1	    1.10000	    0.90000;
	109	 1	 47.58	 12.69	 0.0	 0.0	 1	    1.00000	    0.00000	 138.0	 1	    1.10000	    0.90000;
	110	 1	 0.0	 0.0	 0.0	 50.0	 1	    1.00000	    0.00000	 138.0	 1	    1.10000	    0.90000;
	111	 1	 62.29	 16.61	 0.0	 0.0	 1	    1.00000	    0.00000	 138.0	 1	    1.10000	    0.90000;
	112	 1	 0.0	 0.0	 0.0	 0.0	 1	    1.00000	    0.00000	 138.0	 2	    1.10000	    0.90000;
	113	 1	 45.99	 12.26	 0.0	 0.0	 1	    1.00000	    0.00000	 138.0	 2	    1.10000	    0.90000;
	114	 1	 0.0	 0.0	 0.0	 0.0	 1	    1.00000	    0.00000	 138.0	 2	    1.10000	    0.90000;
	115	 1	 5.06	 1.35	 0.0	 0.0	 1	    1.00000	    0.00000	 138.0	 2	    1.10000	    0.90000;
	116	 1	 3.1	 0.83	 0.0	 0.0	 1	    1.00000	    0.00000	 138.0	 2	    1.10000	    0.90000;
	117	 1	 0.0	 0.0	 0.0	 0.0	 1	    1.00000	    0.00000	 138.0	 1	    1.10000	    0.90000;
	118	 1	 8.83	 2.36	 0.0	 0.0	 1	    1.00000	    0.00000	 138.0	 1	    1.10000	    0.90000;
	119	 1	 0.0	 0.0	 0.0	 0.0	 1	    1.00000	    0.00000	 138.0	 1	    1.10000	    0.90000;
	120	 1	 31.65	 8.44	 0.0	 0.0	 1	    1.00000	    0.00000	 138.0	 1	    1.10000	    0.90000;
	121	 1	 0.0	 0.0	 0.0	 0.0	 1	    1.00000	    0.00000	 138.0	 2	    1.10000	    0.90000;
	122	 1	 53.36	 14.23	 0.0	 0.0	 1	    1.00000	    0.00000	 138.0	 2	    1.10000	    0.90000;
	123	 1	 0.0	 0.0	 0.0	 0.0	 1	    1.00000	    0.00000	 345.0	 1	    1.10000	    0.90000;
	124	 1	 0.0	 0.0	 0.0	 0.0	 1	    1.00000	    0.00000	 138.0	 1	    1.10000	    0.90000;
	125	 2	 0.0	 0.0	 0.0	 0.0	 1	    1.00000	    0.00000	 13.8	 1	    1.10000	    0.90000;
	126	 2	 0.0	 0.0	 0.0	 0.0	 1	    1.00000	    0.00000	 13.8	 1	    1.10000	    0.90000;
	127	 2	 0.0	 0.0	 0.0	 0.0	 1	    1.00000	    0.00000	 13.8	 1	    1.10000	    0.90000;
	128	 2	 0.0	 0.0	 0.0	 0.0	 1	    1.00000	    0.00000	 13.8	 1	    1.10000	    0.90000;
	129	 1	 0.0	 0.0	 0.0	 0.0	 1	    1.00000	    0.00000	 138.0	 1	    1.10000	    0.90000;
	130	 1	 103.24	 27.53	 0.0	 0.0	 1	    1.00000	    0.00000	 138.0	 1	    1.10000	    0.90000;
	131	 1	 0.0	 0.0	 0.0	 0.0	 1	    1.00000	    0.00000	 138.0	 1	    1.10000	    0.90000;
	132	 1	 25.2	 6.72	 0.0	 0.0	 1	    1.00000	    0.00000	 138.0	 1	    1.10000	    0.90000;
	133	 1	 0.0	 0.0	 0.0	 0.0	 1	    1.00000	    0.00000	 138.0	 1	    1.10000	    0.90000;
	134	 1	 42.65	 11.37	 0.0	 0.0	 1	    1.00000	    0.00000	 138.0	 1	    1.10000	    0.90000;
	135	 1	 0.0	 0.0	 0.0	 0.0	 1	    1.00000	    0.00000	 138.0	 2	    1.10000	    0.90000;
	136	 1	 26.76	 7.14	 0.0	 0.0	 1	    1.00000	    0.00000	 138.0	 2	    1.10000	    0.90000;
	137	 1	 0.0	 0.0	 0.0	 0.0	 1	    1.00000	    0.00000	 138.0	 1	    1.10000	    0.90000;
	138	 1	 78.71	 20.99	 0.0	 0.0	 1	    1.00000	    0.00000	 138.0	 1	    1.10000	    0.90000;
	139	 1	 0.0	 0.0	 0.0	 0.0	 1	    1.00000	    0.00000	 138.0	 1	    1.10000	    0.90000;
	140	 1	 0.26	 0.07	 0.0	 0.0	 1	    1.00000	    0.00000	 138.0	 1	    1.10000	    0.90000;
	141	 1	 0.0	 0.0	 0.0	 50.0	 1	    1.00000	    0.00000	 138.0	 1	    1.10000	    0.90000;
	142	 1	 161.34	 43.02	 0.0	 0.0	 1	    1.00000	    0.00000	 138.0	 1	    1.10000	    0.90000;
	143	 1	 0.0	 0.0	 0.0	 0.0	 1	    1.00000	    0.00000	 138.0	 1	    1.10000	    0.90000;
	144	 2	 0.0	 0.0	 0.0	 0.0	 1	    1.00000	    0.00000	 13.8	 1	    1.10000	    0.90000;
	145	 2	 0.0	 0.0	 0.0	 0.0	 1	    1.00000	    0.00000	 13.8	 1	    1.10000	    0.90000;
	146	 1	 0.0	 0.0	 0.0	 0.0	 1	    1.00000	    0.00000	 345.0	 2	    1.10000	    0.90000;
	147	 1	 0.0	 0.0	 0.0	 0.0	 1	    1.00000	    0.00000	 138.0	 2	    1.10000	    0.90000;
	148	 1	 57.42	 15.31	 0.0	 0.0	 1	    1.00000	    0.00000	 138.0	 2	    1.10000	    0.90000;
	149	 1	 0.0	 0.0	 0.0	 0.0	 1	    1.00000	    0.00000	 138.0	 2	    1.10000	    0.90000;
	150	 1	 1.5	 0.4	 0.0	 0.0	 1	    1.00000	    0.00000	 138.0	 2	    1.10000	    0.90000;
	151	 1	 0.0	 0.0	 0.0	 0.0	 1	    1.00000	    0.00000	 345.0	 1	    1.10000	    0.90000;
	152	 1	 0.0	 0.0	 0.0	 70.0	 1	    1.00000	    0.00000	 138.0	 1	    1.10000	    0.90000;
	153	 1	 93.15	 24.84	 0.0	 0.0	 1	    1.00000	    0.00000	 138.0	 1	    1.10000	    0.90000;
	154	 1	 0.0	 0.0	 0.0	 0.0	 1	    1.00000	    0.00000	 138.0	 1	    1.10000	    0.90000;
	155	 1	 66.84	 17.82	 0.0	 0.0	 1	    1.00000	    0.00000	 138.0	 1	    1.10000	    0.90000;
	156	 1	 0.0	 0.0	 0.0	 0.0	 1	    1.00000	    0.00000	 138.0	 1	    1.10000	    0.90000;
	157	 1	 105.45	 28.12	 0.0	 0.0	 1	    1.00000	    0.00000	 138.0	 1	    1.10000	    0.90000;
	158	 1	 0.0	 0.0	 0.0	 0.0	 1	    1.00000	    0.00000	 138.0	 2	    1.10000	    0.90000;
	159	 1	 22.85	 6.09	 0.0	 0.0	 1	    1.00000	    0.00000	 138.0	 2	    1.10000	    0.90000;
	160	 1	 0.0	 0.0	 0.0	 0.0	 1	    1.00000	    0.00000	 138.0	 2	    1.10000	    0.90000;
	161	 1	 25.95	 6.92	 0.0	 0.0	 1	    1.00000	    0.00000	 138.0	 2	    1.10000	    0.90000;
	162	 1	 0.0	 0.0	 0.0	 0.0	 1	    1.00000	    0.00000	 345.0	 2	    1.10000	    0.90000;
	163	 1	 0.0	 0.0	 0.0	 0.0	 1	    1.00000	    0.00000	 138.0	 2	    1.10000	    0.90000;
	164	 1	 98.15	 26.17	 0.0	 0.0	 1	    1.00000	    0.00000	 138.0	 2	    1.10000	    0.90000;
	165	 1	 0.0	 0.0	 0.0	 0.0	 1	    1.00000	    0.00000	 345.0	 1	    1.10000	    0.90000;
	166	 1	 0.0	 0.0	 0.0	 0.0	 1	    1.00000	    0.00000	 138.0	 1	    1.10000	    0.90000;
	167	 2	 0.0	 0.0	 0.0	 0.0	 1	    1.00000	    0.00000	 13.8	 1	    1.10000	    0.90000;
	168	 2	 0.0	 0.0	 0.0	 0.0	 1	    1.00000	    0.00000	 13.8	 1	    1.10000	    0.90000;
	169	 2	 0.0	 0.0	 0.0	 0.0	 1	    1.00000	    0.00000	 13.8	 1	    1.10000	    0.90000;
	170	 1	 0.0	 0.0	 0.0	 0.0	 1	    1.00000	    0.00000	 138.0	 1	    1.10000	    0.90000;
	171	 1	 12.38	 3.3	 0.0	 0.0	 1	    1.00000	    0.00000	 138.0	 1	    1.10000	    0.90000;
	172	 1	 0.0	 0.0	 0.0	 0.0	 1	    1.00000	    0.00000	 138.0	 1	    1.10000	    0.90000;
	173	 1	 3.14	 0.84	 0.0	 0.0	 1	    1.00000	    0.00000	 138.0	 1	    1.10000	    0.90000;
	174	 1	 7.3	 1.95	 0.0	 0.0	 1	    1.00000	    0.00000	 138.0	 1	    1.10000	    0.90000;
	175	 1	 0.0	 0.0	 0.0	 0.0	 1	    1.00000	    0.00000	 345.0	 1	    1.10000	    0.90000;
	176	 1	 0.0	 0.0	 0.0	 0.0	 1	    1.00000	    0.00000	 138.0	 1	    1.10000	    0.90000;
	177	 1	 8.78	 2.34	 0.0	 0.0	 1	    1.00000	    0.00000	 138.0	 1	    1.10000	    0.90000;
	178	 1	 6.81	 1.82	 0.0	 0.0	 1	    1.00000	    0.00000	 138.0	 1	    1.10000	    0.90000;
	179	 1	 0.0	 0.0	 0.0	 0.0	 1	    1.00000	    0.00000	 138.0	 2	    1.10000	    0.90000;
	180	 1	 14.14	 3.77	 0.0	 0.0	 1	    1.00000	    0.00000	 138.0	 2	    1.10000	    0.90000;
	181	 1	 0.0	 0.0	 0.0	 60.0	 1	    1.00000	    0.00000	 138.0	 1	    1.10000	    0.90000;
	182	 1	 82.61	 22.03	 0.0	 0.0	 1	    1.00000	    0.00000	 138.0	 1	    1.10000	    0.90000;
	183	 1	 0.0	 0.0	 0.0	 0.0	 1	    1.00000	    0.00000	 138.0	 1	    1.10000	    0.90000;
	184	 1	 30.18	 8.05	 0.0	 0.0	 1	    1.00000	    0.00000	 138.0	 1	    1.10000	    0.90000;
	185	 1	 0.0	 0.0	 0.0	 0.0	 1	    1.00000	    0.00000	 138.0	 1	    1.10000	    0.90000;
	186	 1	 45.35	 12.09	 0.0	 0.0	 1	    1.00000	    0.00000	 138.0	 1	    1.10000	    0.90000;
	187	 1	 0.0	 0.0	 0.0	 0.0	 1	    1.00000	    0.00000	 138.0	 2	    1.10000	    0.90000;
	188	 1	 11.05	 2.95	 0.0	 0.0	 1	    1.00000	    0.00000	 138.0	 2	    1.10000	    0.90000;
	189	 1	 0.0	 0.0	 0.0	 0.0	 1	    1.00000	    0.00000	 138.0	 2	    1.10000	    0.90000;
	190	 1	 14.07	 3.75	 0.0	 0.0	 1	    1.00000	    0.00000	 138.0	 2	    1.10000	    0.90000;
	191	 1	 0.0	 0.0	 0.0	 0.0	 1	    1.00000	    0.00000	 138.0	 2	    1.10000	    0.90000;
	192	 1	 16.44	 4.38	 0.0	 0.0	 1	    1.00000	    0.00000	 138.0	 2	    1.10000	    0.90000;
	193	 1	 0.0	 0.0	 0.0	 0.0	 1	    1.00000	    0.00000	 138.0	 2	    1.10000	    0.90000;
	194	 1	 28.69	 7.65	 0.0	 0.0	 1	    1.00000	    0.00000	 138.0	 2	    1.10000	    0.90000;
	195	 1	 0.0	 0.0	 0.0	 0.0	 1	    1.00000	    0.00000	 345.0	 2	    1.10000	    0.90000;
	196	 1	 0.0	 0.0	 0.0	 0.0	 1	    1.00000	    0.00000	 138.0	 2	    1.10000	    0.90000;
	197	 2	 0.0	 0.0	 0.0	 0.0	 1	    1.00000	    0.00000	 13.8	 2	    1.10000	    0.90000;
	198	 2	 0.0	 0.0	 0.0	 0.0	 1	    1.00000	    0.00000	 13.8	 2	    1.10000	    0.90000;
	199	 1	 86.39	 23.04	 0.0	 0.0	 1	    1.00000	    0.00000	 138.0	 2	    1.10000	    0.90000;
	200	 1	 0.0	 0.0	 0.0	 0.0	 1	    1.00000	    0.00000	 138.0	 2	    1.10000	    0.90000;
...
];

%% generator data
%	bus	Pg	Qg	Qmax	Qmin	Vg	mBase	status	Pmax	Pmin	Pc1	Pc2	Qc1min	Qc1max	Qc2min	Qc2max	ramp_agc	ramp_10	ramp_30	ramp_q	apf
mpc.gen = [
	9	 501.67	 132.75	 359.66	 -94.16	 1.04	 926.16	 1	 771.8	 231.54	 0.0	 0.0	 0.0	 0.0	 0.0	 0.0	 0.0	 0.0	 0.0	 0.0	 0.0;
	16	 288.89	 63.56	 163.56	 -36.44	 1.04	 533.34	 1	 444.45	 133.33	 0.0	 0.0	 0.0	 0.0	 0.0	 0.0	 0.0	 0.0	 0.0	 0.0	 0.0;
	17	 577.785	 127.115	 327.12	 -72.89	 1.04	 1066.68	 1	 888.9	 266.67	 0.0	 0.0	 0.0	 0.0	 0.0	 0.0	 0.0	 0.0	 0.0	 0.0	 0.0;
	18	 102.44	 22.54	 58.0	 -12.92	 1.04	 189.12	 1	 157.6	 47.28	 0.0	 0.0	 0.0	 0.0	 0.0	 0.0	 0.0	 0.0	 0.0	 0.0	 0.0;
	49	 0.845	 0.225	 0.61	 -0.16	 1.04	 1.56	 1	 1.3	 0.39	 0.0	 0.0	 0.0	 0.0	 0.0	 0.0	 0.0	 0.0	 0.0	 0.0	 0.0;
	50	 1.69	 0.445	 1.21	 -0.32	 1.04	 3.12	 1	 2.6	 0.78	 0.0	 0.0	 0.0	 0.0	 0.0	 0.0	 0.0	 0.0	 0.0	 0.0	 0.0;
	63	 2.08	 0.635	 1.63	 -0.36	 1.04	 3.84	 0	 3.2	 0.96	 0.0	 0.0	 0.0	 0.0	 0.0	 0.0	 0.0	 0.0	 0.0	 0.0	 0.0;
	71	 2.6	 0.67	 1.54	 -0.2	 1.04	 4.8	 1	 4.0	 1.2	 0.0	 0.0	 0.0	 0.0	 0.0	 0.0	 0.0	 0.0	 0.0	 0.0	 0.0;
	72	 1.3	 0.335	 0.77	 -0.1	 1.04	 2.4	 1	 2.0	 0.6	 0.0	 0.0	 0.0	 0.0	 0.0	 0.0	 0.0	 0.0	 0.0	 0.0	 0.0;
	73	 0.91	 0.235	 0.54	 -0.07	 1.04	 1.68	 1	 1.4	 0.42	 0.0	 0.0	 0.0	 0.0	 0.0	 0.0	 0.0	 0.0	 0.0	 0.0	 0.0;
	82	 235.235	 60.62	 138.97	 -17.73	 1.04	 434.28	 1	 361.9	 108.57	 0.0	 0.0	 0.0	 0.0	 0.0	 0.0	 0.0	 0.0	 0.0	 0.0	 0.0;
	125	 105.3	 27.135	 62.21	 -7.94	 1.04	 194.4	 0	 162.0	 48.6	 0.0	 0.0	 0.0	 0.0	 0.0	 0.0	 0.0	 0.0	 0.0	 0.0	 0.0;
	126	 105.3	 27.135	 62.21	 -7.94	 1.04	 194.4	 0	 162.0	 48.6	 0.0	 0.0	 0.0	 0.0	 0.0	 0.0	 0.0	 0.0	 0.0	 0.0	 0.0;
	127	 105.3	 27.135	 62.21	 -7.94	 1.04	 194.4	 1	 162.0	 48.6	 0.0	 0.0	 0.0	 0.0	 0.0	 0.0	 0.0	 0.0	 0.0	 0.0	 0.0;
	128	 105.3	 27.135	 62.21	 -7.94	 1.04	 194.4	 1	 162.0	 48.6	 0.0	 0.0	 0.0	 0.0	 0.0	 0.0	 0.0	 0.0	 0.0	 0.0	 0.0;
	144	 391.655	 86.165	 221.74	 -49.41	 1.04	 723.06	 1	 602.55	 180.76	 0.0	 0.0	 0.0	 0.0	 0.0	 0.0	 0.0	 0.0	 0.0	 0.0	 0.0;
	145	 391.655	 86.165	 221.74	 -49.41	 1.04	 723.06	 1	 602.55	 180.76	 0.0	 0.0	 0.0	 0.0	 0.0	 0.0	 0.0	 0.0	 0.0	 0.0	 0.0;
	167	 125.775	 32.41	 74.3	 -9.48	 1.04	 232.2	 1	 193.5	 58.05	 0.0	 0.0	 0.0	 0.0	 0.0	 0.0	 0.0	 0.0	 0.0	 0.0	 0.0;
	168	 125.775	 32.41	 74.3	 -9.48	 1.04	 232.2	 1	 193.5	 58.05	 0.0	 0.0	 0.0	 0.0	 0.0	 0.0	 0.0	 0.0	 0.0	 0.0	 0.0;
	169	 251.55	 64.825	 148.61	 -18.96	 1.04	 464.4	 1	 387.0	 116.1	 0.0	 0.0	 0.0	 0.0	 0.0	 0.0	 0.0	 0.0	 0.0	 0.0	 0.0;
	197	 190.84	 50.5	 136.82	 -35.82	 1.04	 352.32	 1	 293.6	 88.08	 0.0	 0.0	 0.0	 0.0	 0.0	 0.0	 0.0	 0.0	 0.0	 0.0	 0.0;
	198	 134.745	 35.655	 96.6	 -25.29	 1.04	 248.76	 1	 207.3	 62.19	 0.0	 0.0	 0.0	 0.0	 0.0	 0.0	 0.0	 0.0	 0.0	 0.0	 0.0;
	222	 3.38	 0.875	 2.0	 -0.25	 1.04	 6.24	 1	 5.2	 1.56	 0.0	 0.0	 0.0	 0.0	 0.0	 0.0	 0.0	 0.0	 0.0	 0.0	 0.0;
	223	 11.7	 3.015	 6.91	 -0.88	 1.04	 21.6	 1	 18.0	 5.4	 0.0	 0.0	 0.0	 0.0	 0.0	 0.0	 0.0	 0.0	 0.0	 0.0	 0.0;
	224	 332.28	 85.625	 196.3	 -25.05	 1.04	 613.44	 1	 511.2	 153.36	 0.0	 0.0	 0.0	 0.0	 0.0	 0.0	 0.0	 0.0	 0.0	 0.0	 0.0;
	225	 334.62	 86.225	 197.68	 -25.23	 1.04	 617.76	 1	 514.8	 154.44	 0.0	 0.0	 0.0	 0.0	 0.0	 0.0	 0.0	 0.0	 0.0	 0.0	 0.0;
	231	 1.885	 0.5	 1.35	 -0.35	 1.04	 3.48	 1	 2.9	 0.87	 0.0	 0.0	 0.0	 0.0	 0.0	 0.0	 0.0	 0.0	 0.0	 0.0	 0.0;
	248	 86.58	 26.505	 67.8	 -14.79	 1.04	 159.84	 0	 133.2	 39.96	 0.0	 0.0	 0.0	 0.0	 0.0	 0.0	 0.0	 0.0	 0.0	 0.0	 0.0;
	249	 86.58	 26.505	 67.8	 -14.79	 1.04	 159.84	 0	 133.2	 39.96	 0.0	 0.0	 0.0	 0.0	 0.0	 0.0	 0.0	 0.0	 0.0	 0.0	 0.0;
	250	 346.32	 106.03	 271.2	 -59.14	 1.04	 639.36	 0	 532.8	 159.84	 0.0	 0.0	 0.0	 0.0	 0.0	 0.0	 0.0	 0.0	 0.0	 0.0	 0.0;
	254	 2.665	 0.705	 1.91	 -0.5	 1.04	 4.92	 0	 4.1	 1.23	 0.0	 0.0	 0.0	 0.0	 0.0	 0.0	 0.0	 0.0	 0.0	 0.0	 0.0;
	255	 2.145	 0.57	 1.54	 -0.4	 1.04	 3.96	 0	 3.3	 0.99	 0.0	 0.0	 0.0	 0.0	 0.0	 0.0	 0.0	 0.0	 0.0	 0.0	 0.0;
	256	 1.885	 0.5	 1.35	 -0.35	 1.04	 3.48	 0	 2.9	 0.87	 0.0	 0.0	 0.0	 0.0	 0.0	 0.0	 0.0	 0.0	 0.0	 0.0	 0.0;
	257	 3.51	 0.93	 2.52	 -0.66	 1.04	 6.48	 0	 5.4	 1.62	 0.0	 0.0	 0.0	 0.0	 0.0	 0.0	 0.0	 0.0	 0.0	 0.0	 0.0;
	258	 0.715	 0.19	 0.51	 -0.13	 1.04	 1.32	 1	 1.1	 0.33	 0.0	 0.0	 0.0	 0.0	 0.0	 0.0	 0.0	 0.0	 0.0	 0.0	 0.0;
	264	 25.48	 7.8	 19.95	 -4.35	 1.04	 47.04	 0	 39.2	 11.76	 0.0	 0.0	 0.0	 0.0	 0.0	 0.0	 0.0	 0.0	 0.0	 0.0	 0.0;
	265	 6.89	 2.11	 5.4	 -1.18	 1.04	 12.72	 0	 10.6	 3.18	 0.0	 0.0	 0.0	 0.0	 0.0	 0.0	 0.0	 0.0	 0.0	 0.0	 0.0;
	275	 65.78	 20.14	 51.51	 -11.23	 1.04	 121.44	 0	 101.2	 30.36	 0.0	 0.0	 0.0	 0.0	 0.0	 0.0	 0.0	 0.0	 0.0	 0.0	 0.0;
	301	 1.885	 0.5	 1.35	 -0.35	 1.04	 3.48	 1	 2.9	 0.87	 0.0	 0.0	 0.0	 0.0	 0.0	 0.0	 0.0	 0.0	 0.0	 0.0	 0.0;
	302	 1.885	 0.5	 1.35	 -0.35	 1.04	 3.48	 1	 2.9	 0.87	 0.0	 0.0	 0.0	 0.0	 0.0	 0.0	 0.0	 0.0	 0.0	 0.0	 0.0;
	305	 0.65	 0.165	 0.38	 -0.05	 1.04	 1.2	 1	 1.0	 0.3	 0.0	 0.0	 0.0	 0.0	 0.0	 0.0	 0.0	 0.0	 0.0	 0.0	 0.0;
	306	 1.56	 0.4	 0.92	 -0.12	 1.04	 2.88	 1	 2.4	 0.72	 0.0	 0.0	 0.0	 0.0	 0.0	 0.0	 0.0	 0.0	 0.0	 0.0	 0.0;
	319	 27.495	 7.085	 16.24	 -2.07	 1.04	 50.76	 1	 42.3	 12.69	 0.0	 0.0	 0.0	 0.0	 0.0	 0.0	 0.0	 0.0	 0.0	 0.0	 0.0;
	350	 9.75	 2.51	 5.76	 -0.74	 1.04	 18.0	 1	 15.0	 4.5	 0.0	 0.0	 0.0	 0.0	 0.0	 0.0	 0.0	 0.0	 0.0	 0.0	 0.0;
	351	 4.03	 1.04	 2.38	 -0.3	 1.04	 7.44	 1	 6.2	 1.86	 0.0	 0.0	 0.0	 0.0	 0.0	 0.0	 0.0	 0.0	 0.0	 0.0	 0.0;
	352	 9.36	 2.41	 5.53	 -0.71	 1.04	 17.28	 1	 14.4	 4.32	 0.0	 0.0	 0.0	 0.0	 0.0	 0.0	 0.0	 0.0	 0.0	 0.0	 0.0;
	353	 48.1	 12.395	 28.42	 -3.63	 1.04	 88.8	 1	 74.0	 22.2	 0.0	 0.0	 0.0	 0.0	 0.0	 0.0	 0.0	 0.0	 0.0	 0.0	 0.0;
	361	 1.04	 0.315	 0.81	 -0.18	 1.04	 1.92	 0	 1.6	 0.48	 0.0	 0.0	 0.0	 0.0	 0.0	 0.0	 0.0	 0.0	 0.0	 0.0	 0.0;
	362	 7.15	 2.19	 5.6	 -1.22	 1.04	 13.2	 0	 11.0	 3.3	 0.0	 0.0	 0.0	 0.0	 0.0	 0.0	 0.0	 0.0	 0.0	 0.0	 0.0;
	363	 2.08	 0.635	 1.63	 -0.36	 1.04	 3.84	 0	 3.2	 0.96	 0.0	 0.0	 0.0	 0.0	 0.0	 0.0	 0.0	 0.0	 0.0	 0.0	 0.0;
	388	 6.5	 1.99	 5.09	 -1.11	 1.04	 12.0	 0	 10.0	 3.0	 0.0	 0.0	 0.0	 0.0	 0.0	 0.0	 0.0	 0.0	 0.0	 0.0	 0.0;
	389	 112.665	 34.495	 88.23	 -19.24	 1.04	 208.0	 0	 173.33	 52.0	 0.0	 0.0	 0.0	 0.0	 0.0	 0.0	 0.0	 0.0	 0.0	 0.0	 0.0;
	390	 112.665	 34.495	 88.23	 -19.24	 1.04	 208.0	 0	 173.33	 52.0	 0.0	 0.0	 0.0	 0.0	 0.0	 0.0	 0.0	 0.0	 0.0	 0.0	 0.0;
	391	 112.665	 34.495	 88.23	 -19.24	 1.04	 208.0	 0	 173.33	 52.0	 0.0	 0.0	 0.0	 0.0	 0.0	 0.0	 0.0	 0.0	 0.0	 0.0	 0.0;
	392	 75.66	 23.165	 59.25	 -12.92	 1.04	 139.68	 0	 116.4	 34.92	 0.0	 0.0	 0.0	 0.0	 0.0	 0.0	 0.0	 0.0	 0.0	 0.0	 0.0;
	393	 75.66	 23.165	 59.25	 -12.92	 1.04	 139.68	 0	 116.4	 34.92	 0.0	 0.0	 0.0	 0.0	 0.0	 0.0	 0.0	 0.0	 0.0	 0.0	 0.0;
	394	 75.66	 23.165	 59.25	 -12.92	 1.04	 139.68	 0	 116.4	 34.92	 0.0	 0.0	 0.0	 0.0	 0.0	 0.0	 0.0	 0.0	 0.0	 0.0	 0.0;
	395	 75.66	 23.165	 59.25	 -12.92	 1.04	 139.68	 0	 116.4	 34.92	 0.0	 0.0	 0.0	 0.0	 0.0	 0.0	 0.0	 0.0	 0.0	 0.0	 0.0;
	396	 75.66	 23.165	 59.25	 -12.92	 1.04	 139.68	 0	 116.4	 34.92	 0.0	 0.0	 0.0	 0.0	 0.0	 0.0	 0.0	 0.0	 0.0	 0.0	 0.0;
	409	 65.0	 19.9	 50.9	 -11.1	 1.04	 120.0	 0	 100.0	 30.0	 0.0	 0.0	 0.0	 0.0	 0.0	 0.0	 0.0	 0.0	 0.0	 0.0	 0.0;
	410	 89.015	 27.255	 69.71	 -15.2	 1.04	 164.34	 1	 136.95	 41.08	 0.0	 0.0	 0.0	 0.0	 0.0	 0.0	 0.0	 0.0	 0.0	 0.0	 0.0;
	411	 89.015	 27.255	 69.71	 -15.2	 1.04	 164.34	 1	 136.95	 41.08	 0.0	 0.0	 0.0	 0.0	 0.0	 0.0	 0.0	 0.0	 0.0	 0.0	 0.0;
	412	 89.015	 27.255	 69.71	 -15.2	 1.04	 164.34	 1	 136.95	 41.08	 0.0	 0.0	 0.0	 0.0	 0.0	 0.0	 0.0	 0.0	 0.0	 0.0	 0.0;
	413	 89.015	 27.255	 69.71	 -15.2	 1.04	 164.34	 1	 136.95	 41.08	 0.0	 0.0	 0.0	 0.0	 0.0	 0.0	 0.0	 0.0	 0.0	 0.0	 0.0;
	414	 72.215	 22.11	 56.55	 -12.33	 1.04	 133.32	 0	 111.1	 33.33	 0.0	 0.0	 0.0	 0.0	 0.0	 0.0	 0.0	 0.0	 0.0	 0.0	 0.0;
	430	 0.65	 0.165	 0.38	 -0.05	 1.04	 1.2	 1	 1.0	 0.3	 0.0	 0.0	 0.0	 0.0	 0.0	 0.0	 0.0	 0.0	 0.0	 0.0	 0.0;
	431	 2.145	 0.555	 1.27	 -0.16	 1.04	 3.96	 1	 3.3	 0.99	 0.0	 0.0	 0.0	 0.0	 0.0	 0.0	 0.0	 0.0	 0.0	 0.0	 0.0;
	432	 0.78	 0.2	 0.46	 -0.06	 1.04	 1.44	 1	 1.2	 0.36	 0.0	 0.0	 0.0	 0.0	 0.0	 0.0	 0.0	 0.0	 0.0	 0.0	 0.0;
	433	 4.355	 1.12	 2.57	 -0.33	 1.04	 8.04	 1	 6.7	 2.01	 0.0	 0.0	 0.0	 0.0	 0.0	 0.0	 0.0	 0.0	 0.0	 0.0	 0.0;
	434	 2.795	 0.72	 1.65	 -0.21	 1.04	 5.16	 1	 4.3	 1.29	 0.0	 0.0	 0.0	 0.0	 0.0	 0.0	 0.0	 0.0	 0.0	 0.0	 0.0;
	435	 128.05	 33.0	 75.65	 -9.65	 1.04	 236.4	 0	 197.0	 59.1	 0.0	 0.0	 0.0	 0.0	 0.0	 0.0	 0.0	 0.0	 0.0	 0.0	 0.0;
	436	 128.05	 33.0	 75.65	 -9.65	 1.04	 236.4	 0	 197.0	 59.1	 0.0	 0.0	 0.0	 0.0	 0.0	 0.0	 0.0	 0.0	 0.0	 0.0	 0.0;
	437	 128.05	 33.0	 75.65	 -9.65	 1.04	 236.4	 1	 197.0	 59.1	 0.0	 0.0	 0.0	 0.0	 0.0	 0.0	 0.0	 0.0	 0.0	 0.0	 0.0;
	438	 128.05	 33.0	 75.65	 -9.65	 1.04	 236.4	 1	 197.0	 59.1	 0.0	 0.0	 0.0	 0.0	 0.0	 0.0	 0.0	 0.0	 0.0	 0.0	 0.0;
	439	 128.05	 33.0	 75.65	 -9.65	 1.04	 236.4	 1	 197.0	 59.1	 0.0	 0.0	 0.0	 0.0	 0.0	 0.0	 0.0	 0.0	 0.0	 0.0	 0.0;
	442	 70.2	 21.49	 54.97	 -11.99	 1.04	 129.6	 0	 108.0	 32.4	 0.0	 0.0	 0.0	 0.0	 0.0	 0.0	 0.0	 0.0	 0.0	 0.0	 0.0;
	443	 113.75	 34.82	 89.07	 -19.43	 1.04	 210.0	 0	 175.0	 52.5	 0.0	 0.0	 0.0	 0.0	 0.0	 0.0	 0.0	 0.0	 0.0	 0.0	 0.0;
	444	 2.145	 0.655	 1.68	 -0.37	 1.04	 3.96	 0	 3.3	 0.99	 0.0	 0.0	 0.0	 0.0	 0.0	 0.0	 0.0	 0.0	 0.0	 0.0	 0.0;
	455	 144.84	 44.345	 113.42	 -24.73	 1.04	 267.4	 1	 222.83	 66.85	 0.0	 0.0	 0.0	 0.0	 0.0	 0.0	 0.0	 0.0	 0.0	 0.0	 0.0;
	456	 289.685	 88.685	 226.84	 -49.47	 1.04	 534.8	 1	 445.67	 133.7	 0.0	 0.0	 0.0	 0.0	 0.0	 0.0	 0.0	 0.0	 0.0	 0.0	 0.0;
	458	 71.24	 0.0	 0.0	 0.0	 1.04	 131.52	 1	 109.6	 32.88	 0.0	 0.0	 0.0	 0.0	 0.0	 0.0	 0.0	 0.0	 0.0	 0.0	 0.0;
	463	 4.68	 1.24	 3.36	 -0.88	 1.04	 8.64	 0	 7.2	 2.16	 0.0	 0.0	 0.0	 0.0	 0.0	 0.0	 0.0	 0.0	 0.0	 0.0	 0.0;
	480	 36.4	 9.38	 21.5	 -2.74	 1.04	 67.2	 1	 56.0	 16.8	 0.0	 0.0	 0.0	 0.0	 0.0	 0.0	 0.0	 0.0	 0.0	 0.0	 0.0;
	481	 29.25	 7.535	 17.28	 -2.21	 1.04	 54.0	 1	 45.0	 13.5	 0.0	 0.0	 0.0	 0.0	 0.0	 0.0	 0.0	 0.0	 0.0	 0.0	 0.0;
	482	 29.25	 7.535	 17.28	 -2.21	 1.04	 54.0	 1	 45.0	 13.5	 0.0	 0.0	 0.0	 0.0	 0.0	 0.0	 0.0	 0.0	 0.0	 0.0	 0.0;
	483	 15.6	 4.02	 9.22	 -1.18	 1.04	 28.8	 1	 24.0	 7.2	 0.0	 0.0	 0.0	 0.0	 0.0	 0.0	 0.0	 0.0	 0.0	 0.0	 0.0;
	484	 18.2	 4.69	 10.75	 -1.37	 1.04	 33.6	 1	 28.0	 8.4	 0.0	 0.0	 0.0	 0.0	 0.0	 0.0	 0.0	 0.0	 0.0	 0.0	 0.0;
	494	 3.77	 0.995	 2.7	 -0.71	 1.04	 6.96	 0	 5.8	 1.74	 0.0	 0.0	 0.0	 0.0	 0.0	 0.0	 0.0	 0.0	 0.0	 0.0	 0.0;
	497	 39.0	 10.05	 23.04	 -2.94	 1.04	 72.0	 1	 60.0	 18.0	 0.0	 0.0	 0.0	 0.0	 0.0	 0.0	 0.0	 0.0	 0.0	 0.0	 0.0;
	498	 11.7	 3.015	 6.91	 -0.88	 1.04	 21.6	 1	 18.0	 5.4	 0.0	 0.0	 0.0	 0.0	 0.0	 0.0	 0.0	 0.0	 0.0	 0.0	 0.0;
];

%% generator cost data
%	2	startup	shutdown	n	c(n-1)	...	c0
mpc.gencost = [
	2	 0.0	 0.0	 3	   0.002000	  19.000000	 1424.480000;
	2	 0.0	 0.0	 3	   0.000000	   5.867000	 1266.470000;
	2	 0.0	 0.0	 3	   0.000000	   8.412000	 1319.130000;
	2	 0.0	 0.0	 3	   0.000000	   9.275000	 1076.210000;
	2	 0.0	 0.0	 3	   0.002000	  19.000000	 236.030000;
	2	 0.0	 0.0	 3	   0.002000	  19.000000	 236.070000;
	2	 0.0	 0.0	 3	   0.002000	  23.152000	 604.800000;
	2	 0.0	 0.0	 3	   0.000000	   0.000000	   0.000000;
	2	 0.0	 0.0	 3	   0.000000	   0.000000	   0.000000;
	2	 0.0	 0.0	 3	   0.000000	   0.000000	   0.000000;
	2	 0.0	 0.0	 3	   0.000000	   0.000000	   0.000000;
	2	 0.0	 0.0	 3	   0.000000	   0.000000	   0.000000;
	2	 0.0	 0.0	 3	   0.000000	   0.000000	   0.000000;
	2	 0.0	 0.0	 3	   0.000000	   0.000000	   0.000000;
	2	 0.0	 0.0	 3	   0.000000	   0.000000	   0.000000;
	2	 0.0	 0.0	 3	   0.000000	   6.870000	 1363.880000;
	2	 0.0	 0.0	 3	   0.000000	   8.143000	 1060.190000;
	2	 0.0	 0.0	 3	   0.000000	   0.000000	   0.000000;
	2	 0.0	 0.0	 3	   0.000000	   0.000000	   0.000000;
	2	 0.0	 0.0	 3	   0.000000	   0.000000	   0.000000;
	2	 0.0	 0.0	 3	   0.002000	  19.000000	 1081.020000;
	2	 0.0	 0.0	 3	   0.002000	  19.000000	 879.080000;
	2	 0.0	 0.0	 3	   0.000000	   0.000000	   0.000000;
	2	 0.0	 0.0	 3	   0.000000	   0.000000	   0.000000;
	2	 0.0	 0.0	 3	   0.000000	   0.000000	   0.000000;
	2	 0.0	 0.0	 3	   0.000000	   0.000000	   0.000000;
	2	 0.0	 0.0	 3	   0.002000	  19.000000	 236.080000;
	2	 0.0	 0.0	 3	   0.002000	  24.033000	 799.800000;
	2	 0.0	 0.0	 3	   0.002000	  24.033000	 799.800000;
	2	 0.0	 0.0	 3	   0.002000	  26.742000	 2763.980000;
	2	 0.0	 0.0	 3	   0.002000	  19.000000	 236.110000;
	2	 0.0	 0.0	 3	   0.002000	  19.000000	 236.090000;
	2	 0.0	 0.0	 3	   0.002000	  19.000000	 236.080000;
	2	 0.0	 0.0	 3	   0.002000	  19.000000	 236.140000;
	2	 0.0	 0.0	 3	   0.002000	  19.000000	 236.030000;
	2	 0.0	 0.0	 3	   0.002000	  23.396000	 658.800000;
	2	 0.0	 0.0	 3	   0.002000	  23.202000	 615.900000;
	2	 0.0	 0.0	 3	   0.002000	  23.816000	 751.800000;
	2	 0.0	 0.0	 3	   0.002000	  19.000000	 236.080000;
	2	 0.0	 0.0	 3	   0.002000	  19.000000	 236.080000;
	2	 0.0	 0.0	 3	   0.000000	   0.000000	   0.000000;
	2	 0.0	 0.0	 3	   0.000000	   0.000000	   0.000000;
	2	 0.0	 0.0	 3	   0.000000	   0.000000	   0.000000;
	2	 0.0	 0.0	 3	   0.000000	   0.000000	   0.000000;
	2	 0.0	 0.0	 3	   0.000000	   0.000000	   0.000000;
	2	 0.0	 0.0	 3	   0.000000	   0.000000	   0.000000;
	2	 0.0	 0.0	 3	   0.000000	   0.000000	   0.000000;
	2	 0.0	 0.0	 3	   0.002000	  23.141000	 602.400000;
	2	 0.0	 0.0	 3	   0.002000	  23.205000	 616.500000;
	2	 0.0	 0.0	 3	   0.002000	  23.152000	 604.800000;
	2	 0.0	 0.0	 3	   0.002000	  23.198000	 615.000000;
	2	 0.0	 0.0	 3	   0.002000	  24.305000	 859.990000;
	2	 0.0	 0.0	 3	   0.002000	  24.305000	 859.990000;
	2	 0.0	 0.0	 3	   0.002000	  24.305000	 859.990000;
	2	 0.0	 0.0	 3	   0.002000	  23.919000	 774.600000;
	2	 0.0	 0.0	 3	   0.002000	  23.919000	 774.600000;
	2	 0.0	 0.0	 3	   0.002000	  23.919000	 774.600000;
	2	 0.0	 0.0	 3	   0.002000	  23.919000	 774.600000;
	2	 0.0	 0.0	 3	   0.002000	  23.919000	 774.600000;
	2	 0.0	 0.0	 3	   0.002000	  23.808000	 750.000000;
	2	 0.0	 0.0	 3	   0.002000	  24.059000	 805.420000;
	2	 0.0	 0.0	 3	   0.002000	  24.059000	 805.420000;
	2	 0.0	 0.0	 3	   0.002000	  24.059000	 805.420000;
	2	 0.0	 0.0	 3	   0.002000	  24.059000	 805.420000;
	2	 0.0	 0.0	 3	   0.002000	  23.883000	 766.650000;
	2	 0.0	 0.0	 3	   0.000000	   0.000000	   0.000000;
	2	 0.0	 0.0	 3	   0.000000	   0.000000	   0.000000;
	2	 0.0	 0.0	 3	   0.000000	   0.000000	   0.000000;
	2	 0.0	 0.0	 3	   0.000000	   0.000000	   0.000000;
	2	 0.0	 0.0	 3	   0.000000	   0.000000	   0.000000;
	2	 0.0	 0.0	 3	   0.000000	   0.000000	   0.000000;
	2	 0.0	 0.0	 3	   0.000000	   0.000000	   0.000000;
	2	 0.0	 0.0	 3	   0.000000	   0.000000	   0.000000;
	2	 0.0	 0.0	 3	   0.000000	   0.000000	   0.000000;
	2	 0.0	 0.0	 3	   0.000000	   0.000000	   0.000000;
	2	 0.0	 0.0	 3	   0.002000	  23.862000	 762.000000;
	2	 0.0	 0.0	 3	   0.002000	  24.316000	 862.500000;
	2	 0.0	 0.0	 3	   0.002000	  23.152000	 604.950000;
	2	 0.0	 0.0	 3	   0.002000	  24.641000	 934.240000;
	2	 0.0	 0.0	 3	   0.002000	  26.152000	 1344.190000;
	2	 0.0	 0.0	 3	   0.000000	   0.000000	   0.000000;
	2	 0.0	 0.0	 3	   0.002000	  19.000000	 236.190000;
	2	 0.0	 0.0	 3	   0.000000	   0.000000	   0.000000;
	2	 0.0	 0.0	 3	   0.000000	   0.000000	   0.000000;
	2	 0.0	 0.0	 3	   0.000000	   0.000000	   0.000000;
	2	 0.0	 0.0	 3	   0.000000	   0.000000	   0.000000;
	2	 0.0	 0.0	 3	   0.000000	   0.000000	   0.000000;
	2	 0.0	 0.0	 3	   0.002000	  19.000000	 236.150000;
	2	 0.0	 0.0	 3	   0.000000	   0.000000	   0.000000;
	2	 0.0	 0.0	 3	   0.000000	   0.000000	   0.000000;
];

%% branch data
%	fbus	tbus	r	x	b	rateA	rateB	rateC	ratio	angle	status	angmin	angmax
mpc.branch = [
	2	 1	 0.000531	 0.00314	 0.0	 76.5	 0.0	 0.0	 0.0	 0.0	 1	 -5.384334	 5.384334;
	44	 1	 0.005479	 0.050257	 0.01781	 320.29	 0.0	 0.0	 0.0	 0.0	 1	 -5.384334	 5.384334;
	421	 1	 0.005369	 0.051555	 0.01664	 320.29	 0.0	 0.0	 0.0	 0.0	 1	 -5.384334	 5.384334;
	4	 3	 0.000692	 0.003518	 0.0	 225.06	 0.0	 0.0	 0.0	 0.0	 1	 -5.384334	 5.384334;
	62	 3	 0.002718	 0.026098	 0.00842	 320.29	 0.0	 0.0	 0.0	 0.0	 1	 -5.384334	 5.384334;
	3	 479	 0.007258	 0.069699	 0.0225	 320.29	 0.0	 0.0	 0.0	 0.0	 1	 -5.384334	 5.384334;
	6	 5	 0.000556	 0.003563	 0.0	 4.49	 0.0	 0.0	 0.0	 0.0	 1	 -5.384334	 5.384334;
	316	 5	 0.002445	 0.02348	 0.00758	 320.29	 0.0	 0.0	 0.0	 0.0	 1	 -5.384334	 5.384334;
	401	 5	 0.004886	 0.04692	 0.01515	 320.29	 0.0	 0.0	 0.0	 0.0	 1	 -5.384334	 5.384334;
	8	 7	 0.000355	 0.0129	 0.0	 567.0	 0.0	 0.0	 1.0	 0.0	 1	 -5.384334	 5.384334;
	9	 7	 0.00012	 0.01362	 0.0	 680.0	 0.0	 0.0	 1.0	 0.0	 1	 -5.384334	 5.384334;
	9	 7	 0.00012	 0.01362	 0.0	 680.0	 0.0	 0.0	 1.0	 0.0	 1	 -5.384334	 5.384334;
	7	 232	 0.001119	 0.014808	 0.31205	 1493.89	 0.0	 0.0	 0.0	 0.0	 1	 -5.384334	 5.384334;
	7	 262	 0.000947	 0.013749	 0.23994	 1493.89	 0.0	 0.0	 0.0	 0.0	 1	 -5.384334	 5.384334;
	8	 287	 0.003727	 0.035786	 0.01155	 320.29	 0.0	 0.0	 0.0	 0.0	 1	 -5.384334	 5.384334;
	8	 457	 0.001974	 0.018955	 0.00612	 320.29	 0.0	 0.0	 0.0	 0.0	 1	 -5.384334	 5.384334;
	11	 10	 0.000655	 0.003201	 0.0	 3.96	 0.0	 0.0	 0.0	 0.0	 1	 -5.384334	 5.384334;
	342	 10	 0.002825	 0.027123	 0.00876	 320.29	 0.0	 0.0	 0.0	 0.0	 1	 -5.384334	 5.384334;
	10	 349	 0.001402	 0.01346	 0.00434	 320.29	 0.0	 0.0	 0.0	 0.0	 1	 -5.384334	 5.384334;
	13	 12	 0.000623	 0.003134	 0.0	 65.5	 0.0	 0.0	 0.0	 0.0	 1	 -5.384334	 5.384334;
	12	 216	 0.003962	 0.038048	 0.01228	 320.29	 0.0	 0.0	 0.0	 0.0	 1	 -5.384334	 5.384334;
	12	 304	 0.00231	 0.021191	 0.00751	 320.29	 0.0	 0.0	 0.0	 0.0	 1	 -5.384334	 5.384334;
	12	 441	 0.001565	 0.015025	 0.00485	 320.29	 0.0	 0.0	 0.0	 0.0	 1	 -5.384334	 5.384334;
	15	 14	 0.000208	 0.01122	 0.0	 682.0	 0.0	 0.0	 1.0	 0.0	 1	 -5.384334	 5.384334;
	16	 14	 0.000326	 0.01202	 0.0	 596.0	 0.0	 0.0	 1.0	 0.0	 1	 -5.384334	 5.384334;
	17	 14	 0.000279	 0.01438	 0.0	 674.0	 0.0	 0.0	 1.0	 0.0	 1	 -5.384334	 5.384334;
	17	 14	 0.000354	 0.01438	 0.0	 674.0	 0.0	 0.0	 1.0	 0.0	 1	 -5.384334	 5.384334;
	18	 14	 0.001417	 0.05115	 0.0	 340.0	 0.0	 0.0	 1.0	 0.0	 1	 -5.384334	 5.384334;
	386	 14	 0.000317	 0.004547	 0.08136	 1493.89	 0.0	 0.0	 0.0	 0.0	 1	 -5.384334	 5.384334;
	386	 14	 0.00032	 0.00455	 0.08136	 1493.9	 0.0	 0.0	 0.0	 0.0	 1	 -5.384334	 5.384334;
	15	 91	 0.004799	 0.046085	 0.01488	 320.29	 0.0	 0.0	 0.0	 0.0	 1	 -5.384334	 5.384334;
	15	 230	 0.010894	 0.104607	 0.03377	 320.29	 0.0	 0.0	 0.0	 0.0	 1	 -5.384334	 5.384334;
	367	 15	 0.001918	 0.018416	 0.00594	 320.29	 0.0	 0.0	 0.0	 0.0	 1	 -5.384334	 5.384334;
	15	 369	 0.001854	 0.01701	 0.00603	 320.29	 0.0	 0.0	 0.0	 0.0	 1	 -5.384334	 5.384334;
	15	 473	 0.009225	 0.084621	 0.02999	 320.29	 0.0	 0.0	 0.0	 0.0	 1	 -5.384334	 5.384334;
	20	 19	 0.000541	 0.003886	 0.0	 7.53	 0.0	 0.0	 0.0	 0.0	 1	 -5.384334	 5.384334;
	19	 112	 0.004722	 0.045345	 0.01464	 320.29	 0.0	 0.0	 0.0	 0.0	 1	 -5.384334	 5.384334;
	193	 19	 0.002221	 0.021323	 0.00688	 320.29	 0.0	 0.0	 0.0	 0.0	 1	 -5.384334	 5.384334;
	19	 272	 0.002293	 0.02202	 0.00711	 320.29	 0.0	 0.0	 0.0	 0.0	 1	 -5.384334	 5.384334;
	22	 21	 0.000587	 0.003174	 0.0	 254.15	 0.0	 0.0	 0.0	 0.0	 1	 -5.384334	 5.384334;
	21	 112	 0.005092	 0.048896	 0.01578	 320.29	 0.0	 0.0	 0.0	 0.0	 1	 -5.384334	 5.384334;
	21	 196	 0.002207	 0.020247	 0.00718	 320.29	 0.0	 0.0	 0.0	 0.0	 1	 -5.384334	 5.384334;
	24	 23	 0.00033	 0.01764	 0.0	 626.0	 0.0	 0.0	 1.0	 0.0	 1	 -5.384334	 5.384334;
	151	 23	 0.000182	 0.002607	 0.04665	 1493.89	 0.0	 0.0	 0.0	 0.0	 1	 -5.384334	 5.384334;
	23	 386	 0.001642	 0.023851	 0.41623	 1493.89	 0.0	 0.0	 0.0	 0.0	 1	 -5.384334	 5.384334;
	23	 464	 0.000947	 0.012532	 0.26411	 1493.89	 0.0	 0.0	 0.0	 0.0	 1	 -5.384334	 5.384334;
	23	 471	 0.000532	 0.007041	 0.14837	 1493.89	 0.0	 0.0	 0.0	 0.0	 1	 -5.384334	 5.384334;
	25	 24	 0.000613	 0.003629	 0.0	 3.56	 0.0	 0.0	 0.0	 0.0	 1	 -5.384334	 5.384334;
	26	 24	 0.000563	 0.003729	 0.0	 29.46	 0.0	 0.0	 0.0	 0.0	 1	 -5.384334	 5.384334;
	210	 24	 0.002218	 0.020344	 0.00721	 320.29	 0.0	 0.0	 0.0	 0.0	 1	 -5.384334	 5.384334;
	24	 360	 0.002365	 0.022714	 0.00733	 320.29	 0.0	 0.0	 0.0	 0.0	 1	 -5.384334	 5.384334;
	28	 27	 0.000687	 0.003963	 0.0	 108.61	 0.0	 0.0	 0.0	 0.0	 1	 -5.384334	 5.384334;
	27	 68	 0.005607	 0.053845	 0.01738	 320.29	 0.0	 0.0	 0.0	 0.0	 1	 -5.384334	 5.384334;
	27	 382	 0.00337	 0.030912	 0.01095	 320.29	 0.0	 0.0	 0.0	 0.0	 1	 -5.384334	 5.384334;
	30	 29	 0.000616	 0.003298	 0.0	 156.98	 0.0	 0.0	 0.0	 0.0	 1	 -5.384334	 5.384334;
	454	 29	 0.00247	 0.022656	 0.00803	 320.29	 0.0	 0.0	 0.0	 0.0	 1	 -5.384334	 5.384334;
	29	 491	 0.005607	 0.053837	 0.01738	 320.29	 0.0	 0.0	 0.0	 0.0	 1	 -5.384334	 5.384334;
	32	 31	 0.000625	 0.003429	 0.0	 15.7	 0.0	 0.0	 0.0	 0.0	 1	 -5.384334	 5.384334;
	31	 85	 0.005303	 0.050926	 0.01644	 320.29	 0.0	 0.0	 0.0	 0.0	 1	 -5.384334	 5.384334;
	104	 31	 0.005526	 0.053062	 0.01713	 320.29	 0.0	 0.0	 0.0	 0.0	 1	 -5.384334	 5.384334;
	31	 189	 0.005707	 0.0548	 0.01769	 320.29	 0.0	 0.0	 0.0	 0.0	 1	 -5.384334	 5.384334;
	31	 205	 0.007797	 0.074869	 0.02417	 320.29	 0.0	 0.0	 0.0	 0.0	 1	 -5.384334	 5.384334;
	31	 218	 0.008273	 0.079446	 0.02565	 320.29	 0.0	 0.0	 0.0	 0.0	 1	 -5.384334	 5.384334;
	267	 31	 0.004897	 0.047021	 0.01518	 320.29	 0.0	 0.0	 0.0	 0.0	 1	 -5.384334	 5.384334;
	34	 33	 0.000624	 0.003284	 0.0	 43.35	 0.0	 0.0	 0.0	 0.0	 1	 -5.384334	 5.384334;
	83	 33	 0.005287	 0.050764	 0.01639	 320.29	 0.0	 0.0	 0.0	 0.0	 1	 -5.384334	 5.384334;
	112	 33	 0.007061	 0.067808	 0.02189	 320.29	 0.0	 0.0	 0.0	 0.0	 1	 -5.384334	 5.384334;
	36	 35	 0.000583	 0.00303	 0.0	 62.87	 0.0	 0.0	 0.0	 0.0	 1	 -5.384334	 5.384334;
	191	 35	 0.004038	 0.037042	 0.01313	 320.29	 0.0	 0.0	 0.0	 0.0	 1	 -5.384334	 5.384334;
	35	 399	 0.005636	 0.054123	 0.01747	 320.29	 0.0	 0.0	 0.0	 0.0	 1	 -5.384334	 5.384334;
	38	 37	 0.000546	 0.003823	 0.0	 0.18	 0.0	 0.0	 0.0	 0.0	 1	 -5.384334	 5.384334;
	76	 37	 0.001474	 0.014156	 0.00457	 320.29	 0.0	 0.0	 0.0	 0.0	 1	 -5.384334	 5.384334;
	37	 176	 0.003039	 0.02918	 0.00942	 320.29	 0.0	 0.0	 0.0	 0.0	 1	 -5.384334	 5.384334;
	40	 39	 0.0007	 0.02531	 0.0	 428.0	 0.0	 0.0	 1.0	 0.0	 1	 -5.384334	 5.384334;
	39	 332	 0.000403	 0.005786	 0.10355	 1493.89	 0.0	 0.0	 0.0	 0.0	 1	 -5.384334	 5.384334;
	39	 428	 0.000521	 0.006898	 0.14538	 1493.89	 0.0	 0.0	 0.0	 0.0	 1	 -5.384334	 5.384334;
	41	 40	 0.000631	 0.003923	 0.0	 97.47	 0.0	 0.0	 0.0	 0.0	 1	 -5.384334	 5.384334;
	40	 131	 0.002909	 0.026681	 0.00946	 320.29	 0.0	 0.0	 0.0	 0.0	 1	 -5.384334	 5.384334;
	43	 42	 0.000542	 0.003119	 0.0	 7.7	 0.0	 0.0	 0.0	 0.0	 1	 -5.384334	 5.384334;
	81	 42	 0.002361	 0.02166	 0.00768	 320.29	 0.0	 0.0	 0.0	 0.0	 1	 -5.384334	 5.384334;
	42	 191	 0.006368	 0.05842	 0.0207	 320.29	 0.0	 0.0	 0.0	 0.0	 1	 -5.384334	 5.384334;
	45	 44	 0.000637	 0.003876	 0.0	 2.84	 0.0	 0.0	 0.0	 0.0	 1	 -5.384334	 5.384334;
	44	 200	 0.002105	 0.019311	 0.00684	 320.29	 0.0	 0.0	 0.0	 0.0	 1	 -5.384334	 5.384334;
	47	 46	 0.000602	 0.003454	 0.0	 63.0	 0.0	 0.0	 0.0	 0.0	 1	 -5.384334	 5.384334;
	46	 156	 0.006611	 0.063482	 0.02049	 320.29	 0.0	 0.0	 0.0	 0.0	 1	 -5.384334	 5.384334;
	238	 46	 0.003134	 0.030093	 0.00971	 320.29	 0.0	 0.0	 0.0	 0.0	 1	 -5.384334	 5.384334;
	49	 48	 0.01331	 0.27853	 0.0	 57.0	 0.0	 0.0	 1.0	 0.0	 1	 -5.384334	 5.384334;
	50	 48	 0.00715	 0.16356	 0.0	 70.0	 0.0	 0.0	 1.0	 0.0	 1	 -5.384334	 5.384334;
	51	 48	 0.000658	 0.003672	 0.0	 0.56	 0.0	 0.0	 0.0	 0.0	 1	 -5.384334	 5.384334;
	52	 48	 0.00062	 0.003342	 0.0	 37.95	 0.0	 0.0	 0.0	 0.0	 1	 -5.384334	 5.384334;
	358	 48	 0.0045	 0.041283	 0.01463	 320.29	 0.0	 0.0	 0.0	 0.0	 1	 -5.384334	 5.384334;
	419	 48	 0.004637	 0.044525	 0.01437	 320.29	 0.0	 0.0	 0.0	 0.0	 1	 -5.384334	 5.384334;
	54	 53	 0.00068	 0.003061	 0.0	 51.27	 0.0	 0.0	 0.0	 0.0	 1	 -5.384334	 5.384334;
	233	 53	 0.002362	 0.021667	 0.00768	 320.29	 0.0	 0.0	 0.0	 0.0	 1	 -5.384334	 5.384334;
	53	 276	 0.001502	 0.014424	 0.00466	 320.29	 0.0	 0.0	 0.0	 0.0	 1	 -5.384334	 5.384334;
	56	 55	 0.000641	 0.00331	 0.0	 3.15	 0.0	 0.0	 0.0	 0.0	 1	 -5.384334	 5.384334;
	55	 66	 0.00433	 0.041575	 0.01342	 320.29	 0.0	 0.0	 0.0	 0.0	 1	 -5.384334	 5.384334;
	55	 500	 0.004481	 0.041102	 0.01457	 320.29	 0.0	 0.0	 0.0	 0.0	 1	 -5.384334	 5.384334;
	58	 57	 0.00012	 0.01762	 0.0	 675.0	 0.0	 0.0	 1.0	 0.0	 1	 -5.384334	 5.384334;
	58	 57	 0.00012	 0.01762	 0.0	 675.0	 0.0	 0.0	 1.0	 0.0	 1	 -5.384334	 5.384334;
	57	 123	 0.001682	 0.024427	 0.42627	 1493.89	 0.0	 0.0	 0.0	 0.0	 1	 -5.384334	 5.384334;
	440	 57	 0.000601	 0.008726	 0.15227	 1493.89	 0.0	 0.0	 0.0	 0.0	 1	 -5.384334	 5.384334;
	59	 58	 0.00062	 0.003848	 0.0	 252.93	 0.0	 0.0	 0.0	 0.0	 1	 -5.384334	 5.384334;
	58	 253	 0.004532	 0.04352	 0.01405	 320.29	 0.0	 0.0	 0.0	 0.0	 1	 -5.384334	 5.384334;
	322	 58	 0.002019	 0.019385	 0.00626	 320.29	 0.0	 0.0	 0.0	 0.0	 1	 -5.384334	 5.384334;
	322	 58	 0.00202	 0.01939	 0.00626	 320.3	 0.0	 0.0	 0.0	 0.0	 1	 -5.384334	 5.384334;
	61	 60	 0.000529	 0.003518	 0.0	 0.32	 0.0	 0.0	 0.0	 0.0	 1	 -5.384334	 5.384334;
	60	 131	 0.001985	 0.018208	 0.00645	 320.29	 0.0	 0.0	 0.0	 0.0	 1	 -5.384334	 5.384334;
	466	 60	 0.002011	 0.019314	 0.00623	 320.29	 0.0	 0.0	 0.0	 0.0	 1	 -5.384334	 5.384334;
	63	 62	 0.0032	 0.16353	 0.0	 70.0	 0.0	 0.0	 1.0	 0.0	 1	 -5.384334	 5.384334;
	64	 62	 0.000661	 0.003274	 0.0	 45.58	 0.0	 0.0	 0.0	 0.0	 1	 -5.384334	 5.384334;
	287	 62	 0.005453	 0.052365	 0.0169	 320.29	 0.0	 0.0	 0.0	 0.0	 1	 -5.384334	 5.384334;
	62	 457	 0.007267	 0.069786	 0.02253	 320.29	 0.0	 0.0	 0.0	 0.0	 1	 -5.384334	 5.384334;
	66	 65	 0.000808	 0.03088	 0.0	 405.0	 0.0	 0.0	 1.0	 0.0	 1	 -5.384334	 5.384334;
	80	 65	 0.00096	 0.013773	 0.24648	 1493.89	 0.0	 0.0	 0.0	 0.0	 1	 -5.384334	 5.384334;
	65	 297	 0.00092	 0.013192	 0.23607	 1493.89	 0.0	 0.0	 0.0	 0.0	 1	 -5.384334	 5.384334;
	67	 66	 0.000661	 0.003359	 0.0	 6.71	 0.0	 0.0	 0.0	 0.0	 1	 -5.384334	 5.384334;
	66	 308	 0.00718	 0.06895	 0.02226	 320.29	 0.0	 0.0	 0.0	 0.0	 1	 -5.384334	 5.384334;
	69	 68	 0.000669	 0.003998	 0.0	 27.64	 0.0	 0.0	 0.0	 0.0	 1	 -5.384334	 5.384334;
	68	 295	 0.004469	 0.040995	 0.01453	 320.29	 0.0	 0.0	 0.0	 0.0	 1	 -5.384334	 5.384334;
	68	 314	 0.001805	 0.017334	 0.0056	 320.29	 0.0	 0.0	 0.0	 0.0	 1	 -5.384334	 5.384334;
	71	 70	 0.00103	 0.04472	 0.0	 133.0	 0.0	 0.0	 1.0	 0.0	 1	 -5.384334	 5.384334;
	72	 70	 0.00292	 0.14481	 0.0	 60.0	 0.0	 0.0	 1.0	 0.0	 1	 -5.384334	 5.384334;
	73	 70	 0.012696	 0.27303	 0.0	 49.0	 0.0	 0.0	 1.0	 0.0	 1	 -5.384334	 5.384334;
	216	 70	 0.002596	 0.02381	 0.00844	 320.29	 0.0	 0.0	 0.0	 0.0	 1	 -5.384334	 5.384334;
	70	 490	 0.002127	 0.019512	 0.00691	 320.29	 0.0	 0.0	 0.0	 0.0	 1	 -5.384334	 5.384334;
	75	 74	 0.000584	 0.003339	 0.0	 8.81	 0.0	 0.0	 0.0	 0.0	 1	 -5.384334	 5.384334;
	74	 189	 0.005632	 0.054084	 0.01746	 320.29	 0.0	 0.0	 0.0	 0.0	 1	 -5.384334	 5.384334;
	240	 74	 0.004434	 0.04067	 0.01441	 320.29	 0.0	 0.0	 0.0	 0.0	 1	 -5.384334	 5.384334;
	77	 76	 0.000695	 0.003313	 0.0	 12.16	 0.0	 0.0	 0.0	 0.0	 1	 -5.384334	 5.384334;
	452	 76	 0.002012	 0.019322	 0.00624	 320.29	 0.0	 0.0	 0.0	 0.0	 1	 -5.384334	 5.384334;
	79	 78	 0.000622	 0.003279	 0.0	 0.52	 0.0	 0.0	 0.0	 0.0	 1	 -5.384334	 5.384334;
	78	 328	 0.005432	 0.049829	 0.01766	 320.29	 0.0	 0.0	 0.0	 0.0	 1	 -5.384334	 5.384334;
	78	 387	 0.002354	 0.022609	 0.0073	 320.29	 0.0	 0.0	 0.0	 0.0	 1	 -5.384334	 5.384334;
	81	 80	 0.00065	 0.03481	 0.0	 529.0	 0.0	 0.0	 1.0	 0.0	 1	 -5.384334	 5.384334;
	82	 80	 0.00043	 0.03113	 0.0	 628.0	 0.0	 0.0	 1.0	 0.0	 1	 -5.384334	 5.384334;
	407	 80	 0.000818	 0.010825	 0.22813	 1493.89	 0.0	 0.0	 0.0	 0.0	 1	 -5.384334	 5.384334;
	149	 81	 0.002879	 0.02641	 0.00936	 320.29	 0.0	 0.0	 0.0	 0.0	 1	 -5.384334	 5.384334;
	84	 83	 0.000638	 0.003655	 0.0	 105.41	 0.0	 0.0	 0.0	 0.0	 1	 -5.384334	 5.384334;
	83	 342	 0.004116	 0.03952	 0.01276	 320.29	 0.0	 0.0	 0.0	 0.0	 1	 -5.384334	 5.384334;
	86	 85	 0.000652	 0.003901	 0.0	 30.04	 0.0	 0.0	 0.0	 0.0	 1	 -5.384334	 5.384334;
	272	 85	 0.004412	 0.04047	 0.01434	 320.29	 0.0	 0.0	 0.0	 0.0	 1	 -5.384334	 5.384334;
	88	 87	 0.000623	 0.003569	 0.0	 7.69	 0.0	 0.0	 0.0	 0.0	 1	 -5.384334	 5.384334;
	87	 141	 0.001846	 0.017727	 0.00572	 320.29	 0.0	 0.0	 0.0	 0.0	 1	 -5.384334	 5.384334;
	87	 143	 0.00382	 0.035043	 0.01242	 320.29	 0.0	 0.0	 0.0	 0.0	 1	 -5.384334	 5.384334;
	423	 87	 0.001836	 0.017627	 0.00569	 320.29	 0.0	 0.0	 0.0	 0.0	 1	 -5.384334	 5.384334;
	90	 89	 0.000554	 0.003864	 0.0	 10.48	 0.0	 0.0	 0.0	 0.0	 1	 -5.384334	 5.384334;
	89	 187	 0.002116	 0.020322	 0.00656	 320.29	 0.0	 0.0	 0.0	 0.0	 1	 -5.384334	 5.384334;
	89	 457	 0.009012	 0.082666	 0.02929	 320.29	 0.0	 0.0	 0.0	 0.0	 1	 -5.384334	 5.384334;
	92	 91	 0.000572	 0.003617	 0.0	 104.24	 0.0	 0.0	 0.0	 0.0	 1	 -5.384334	 5.384334;
	91	 133	 0.00504	 0.048401	 0.01562	 320.29	 0.0	 0.0	 0.0	 0.0	 1	 -5.384334	 5.384334;
	94	 93	 0.000536	 0.003281	 0.0	 8.18	 0.0	 0.0	 0.0	 0.0	 1	 -5.384334	 5.384334;
	269	 93	 0.003921	 0.035965	 0.01275	 320.29	 0.0	 0.0	 0.0	 0.0	 1	 -5.384334	 5.384334;
	336	 93	 0.005795	 0.053155	 0.01884	 320.29	 0.0	 0.0	 0.0	 0.0	 1	 -5.384334	 5.384334;
	96	 95	 0.000563	 0.003253	 0.0	 56.18	 0.0	 0.0	 0.0	 0.0	 1	 -5.384334	 5.384334;
	95	 170	 0.002111	 0.020268	 0.00654	 320.29	 0.0	 0.0	 0.0	 0.0	 1	 -5.384334	 5.384334;
	95	 369	 0.004094	 0.039316	 0.01269	 320.29	 0.0	 0.0	 0.0	 0.0	 1	 -5.384334	 5.384334;
	98	 97	 0.000569	 0.003986	 0.0	 66.43	 0.0	 0.0	 0.0	 0.0	 1	 -5.384334	 5.384334;
	181	 97	 0.002992	 0.028734	 0.00928	 320.29	 0.0	 0.0	 0.0	 0.0	 1	 -5.384334	 5.384334;
	358	 97	 0.002676	 0.024552	 0.0087	 320.29	 0.0	 0.0	 0.0	 0.0	 1	 -5.384334	 5.384334;
	100	 99	 0.000644	 0.00362	 0.0	 22.69	 0.0	 0.0	 0.0	 0.0	 1	 -5.384334	 5.384334;
	101	 99	 0.000699	 0.003294	 0.0	 1.37	 0.0	 0.0	 0.0	 0.0	 1	 -5.384334	 5.384334;
	99	 465	 0.002689	 0.02582	 0.00834	 320.29	 0.0	 0.0	 0.0	 0.0	 1	 -5.384334	 5.384334;
	472	 99	 0.003318	 0.031864	 0.01029	 320.29	 0.0	 0.0	 0.0	 0.0	 1	 -5.384334	 5.384334;
	103	 102	 0.000614	 0.003874	 0.0	 64.6	 0.0	 0.0	 0.0	 0.0	 1	 -5.384334	 5.384334;
	102	 308	 0.00565	 0.054254	 0.01751	 320.29	 0.0	 0.0	 0.0	 0.0	 1	 -5.384334	 5.384334;
	419	 102	 0.003638	 0.034938	 0.01128	 320.29	 0.0	 0.0	 0.0	 0.0	 1	 -5.384334	 5.384334;
	105	 104	 0.000673	 0.003751	 0.0	 144.23	 0.0	 0.0	 0.0	 0.0	 1	 -5.384334	 5.384334;
	104	 191	 0.005177	 0.047485	 0.01683	 320.29	 0.0	 0.0	 0.0	 0.0	 1	 -5.384334	 5.384334;
	107	 106	 0.000575	 0.003206	 0.0	 24.46	 0.0	 0.0	 0.0	 0.0	 1	 -5.384334	 5.384334;
	106	 191	 0.004468	 0.042904	 0.01385	 320.29	 0.0	 0.0	 0.0	 0.0	 1	 -5.384334	 5.384334;
	236	 106	 0.003115	 0.029915	 0.00966	 320.29	 0.0	 0.0	 0.0	 0.0	 1	 -5.384334	 5.384334;
	109	 108	 0.000658	 0.00301	 0.0	 62.91	 0.0	 0.0	 0.0	 0.0	 1	 -5.384334	 5.384334;
	108	 472	 0.002033	 0.019521	 0.0063	 320.29	 0.0	 0.0	 0.0	 0.0	 1	 -5.384334	 5.384334;
	108	 495	 0.003611	 0.034672	 0.01119	 320.29	 0.0	 0.0	 0.0	 0.0	 1	 -5.384334	 5.384334;
	111	 110	 0.000527	 0.003708	 0.0	 87.02	 0.0	 0.0	 0.0	 0.0	 1	 -5.384334	 5.384334;
	274	 110	 0.003126	 0.030018	 0.00969	 320.29	 0.0	 0.0	 0.0	 0.0	 1	 -5.384334	 5.384334;
	110	 316	 0.003439	 0.033025	 0.01066	 320.29	 0.0	 0.0	 0.0	 0.0	 1	 -5.384334	 5.384334;
	113	 112	 0.000644	 0.003119	 0.0	 72.98	 0.0	 0.0	 0.0	 0.0	 1	 -5.384334	 5.384334;
	193	 112	 0.002867	 0.027534	 0.00889	 320.29	 0.0	 0.0	 0.0	 0.0	 1	 -5.384334	 5.384334;
	112	 236	 0.006329	 0.060777	 0.01962	 320.29	 0.0	 0.0	 0.0	 0.0	 1	 -5.384334	 5.384334;
	112	 283	 0.008619	 0.08276	 0.02672	 320.29	 0.0	 0.0	 0.0	 0.0	 1	 -5.384334	 5.384334;
	372	 112	 0.002007	 0.019267	 0.00622	 320.29	 0.0	 0.0	 0.0	 0.0	 1	 -5.384334	 5.384334;
	112	 499	 0.005577	 0.051155	 0.01813	 320.29	 0.0	 0.0	 0.0	 0.0	 1	 -5.384334	 5.384334;
	115	 114	 0.000506	 0.00336	 0.0	 6.74	 0.0	 0.0	 0.0	 0.0	 1	 -5.384334	 5.384334;
	116	 114	 0.000505	 0.003411	 0.0	 5.26	 0.0	 0.0	 0.0	 0.0	 1	 -5.384334	 5.384334;
	114	 191	 0.005557	 0.053364	 0.01723	 320.29	 0.0	 0.0	 0.0	 0.0	 1	 -5.384334	 5.384334;
	114	 312	 0.006609	 0.063462	 0.02049	 320.29	 0.0	 0.0	 0.0	 0.0	 1	 -5.384334	 5.384334;
	118	 117	 0.000634	 0.003851	 0.0	 12.8	 0.0	 0.0	 0.0	 0.0	 1	 -5.384334	 5.384334;
	117	 426	 0.003172	 0.029099	 0.01031	 320.29	 0.0	 0.0	 0.0	 0.0	 1	 -5.384334	 5.384334;
	490	 117	 0.002999	 0.027508	 0.00975	 320.29	 0.0	 0.0	 0.0	 0.0	 1	 -5.384334	 5.384334;
	120	 119	 0.000556	 0.003059	 0.0	 46.58	 0.0	 0.0	 0.0	 0.0	 1	 -5.384334	 5.384334;
	119	 129	 0.00235	 0.021554	 0.00764	 320.29	 0.0	 0.0	 0.0	 0.0	 1	 -5.384334	 5.384334;
	253	 119	 0.001494	 0.01435	 0.00463	 320.29	 0.0	 0.0	 0.0	 0.0	 1	 -5.384334	 5.384334;
	122	 121	 0.000555	 0.003846	 0.0	 70.42	 0.0	 0.0	 0.0	 0.0	 1	 -5.384334	 5.384334;
	121	 276	 0.002548	 0.024463	 0.0079	 320.29	 0.0	 0.0	 0.0	 0.0	 1	 -5.384334	 5.384334;
	121	 287	 0.007088	 0.068058	 0.02197	 320.29	 0.0	 0.0	 0.0	 0.0	 1	 -5.384334	 5.384334;
	124	 123	 0.0002	 0.01438	 0.0	 488.0	 0.0	 0.0	 1.0	 0.0	 1	 -5.384334	 5.384334;
	125	 123	 0.00028	 0.04064	 0.0	 346.0	 0.0	 0.0	 1.0	 0.0	 1	 -5.384334	 5.384334;
	126	 123	 0.00015	 0.02189	 0.0	 352.0	 0.0	 0.0	 1.0	 0.0	 1	 -5.384334	 5.384334;
...
];

% INFO    : === Translation Options ===
% INFO    : Phase Angle Bound:           5.384334 (deg.)
% INFO    : 
% INFO    : === Base KV Replacement Notes ===
% INFO    : 
% INFO    : === Transformer Setting Replacement Notes ===
% INFO    : 
% INFO    : === Writing Matpower Case File Notes ===
